#####################################################################
CSCI 567 HW #1
###################################################################

Execution Environment:

Python Version: 3.9.13
Python Environment: 
Default environment generated by Anaconda + numpy + matplotlib

##################################################################### 

Execution Instruction:

-----------------------------------------------------------------------------------
Q4.py 
Input file: disease.json
Output file: knn_output.txt(contains training error and validation error of each k)
             T_err_k.png(training error plot)
             V_err_k.png(validation error plot)
Report items printed in the terminal.
------------------------------------------------------------------------------------

-------------------------------------------------------------------------------------
Q5.py
Output file: GD.png(GD iteration plot)
             SGD.png(SGD iteration plot)
Report items printed in the terminal.
--------------------------------------------------------------------------------------