#####################################################################
CSCI 567 HW #2
###################################################################

Execution Environment:

Python Version: 3.9.13
Python Environment: 
Default environment generated by Anaconda + numpy + matplotlib + scikit-learn

##################################################################### 

Execution Instruction:

-----------------------------------------------------------------------------------
Q3.py 
Input file: disease.json
Output file: Q3_output.txt(contains all computed numerical values)
             P3-2.png(for problem 3.2)
             P3-4-1.png(for problem 3.4)
             P3-4-2.png(for problem 3.4)
             P3-4-3.png(for problem 3.4)
             P3-5.png(for problem 3.5)
Report items printed in the terminal.
------------------------------------------------------------------------------------

-------------------------------------------------------------------------------------
Q4.py
Output file: P4-1.png(for problem 4.1)
             P4-2.png(for problem 4.2)
Report items printed in the terminal.
--------------------------------------------------------------------------------------